MODEL 1
REMARK VINA RESULT:    -5.566      0.000      0.000
REMARK INTER + INTRA:          -7.622
REMARK INTER:                  -7.193
REMARK INTRA:                  -0.429
REMARK UNBOUND:                -0.429
REMARK SMILES C[C@H](CS)C(=O)N1CCC[C@H]1C(=O)O
REMARK SMILES IDX 5 1 6 2 2 3 1 4 3 5 4 6 7 8 8 9 11 10 9 11 10 12 12 13 13 14
REMARK SMILES IDX 14 15
REMARK H PARENT 4 7 14 16
REMARK Flexibility Score: inf
ROOT
ATOM      1  C   UNL A   1      42.178  37.777  51.111  1.00  0.00     0.226 C 
ATOM      2  O   UNL A   1      43.279  37.345  51.408  1.00  0.00    -0.275 OA
ENDROOT
BRANCH   1   3
ATOM      3  C   UNL A   1      41.882  39.242  51.427  1.00  0.00     0.085 C 
ATOM      4  C   UNL A   1      41.223  39.924  50.221  1.00  0.00     0.019 C 
BRANCH   3   5
ATOM      5  C   UNL A   1      43.148  39.994  51.890  1.00  0.00     0.079 C 
BRANCH   5   6
ATOM      6  S   UNL A   1      43.051  41.812  51.718  1.00  0.00    -0.179 SA
ATOM      7  H   UNL A   1      42.414  41.978  52.962  1.00  0.00     0.102 HD
ENDBRANCH   5   6
ENDBRANCH   3   5
ENDBRANCH   1   3
BRANCH   1   8
ATOM      8  N   UNL A   1      41.258  36.951  50.510  1.00  0.00    -0.329 N 
ATOM      9  C   UNL A   1      39.917  36.741  51.026  1.00  0.00     0.120 C 
ATOM     10  C   UNL A   1      41.493  36.120  49.324  1.00  0.00     0.195 C 
ATOM     11  C   UNL A   1      39.448  35.473  50.324  1.00  0.00     0.024 C 
ATOM     12  C   UNL A   1      40.074  35.635  48.966  1.00  0.00     0.039 C 
BRANCH  10  13
ATOM     13  C   UNL A   1      42.134  36.844  48.142  1.00  0.00     0.326 C 
ATOM     14  O   UNL A   1      41.517  37.699  47.525  1.00  0.00    -0.250 OA
BRANCH  13  15
ATOM     15  O   UNL A   1      43.345  36.471  47.672  1.00  0.00    -0.480 OA
ATOM     16  H   UNL A   1      43.591  35.545  47.552  1.00  0.00     0.296 HD
ENDBRANCH  13  15
ENDBRANCH  10  13
ENDBRANCH   1   8
TORSDOF 6
ENDMDL
MODEL 2
REMARK VINA RESULT:    -5.343      7.620      9.486
REMARK INTER + INTRA:          -7.333
REMARK INTER:                  -6.827
REMARK INTRA:                  -0.506
REMARK UNBOUND:                -0.429
REMARK SMILES C[C@H](CS)C(=O)N1CCC[C@H]1C(=O)O
REMARK SMILES IDX 5 1 6 2 2 3 1 4 3 5 4 6 7 8 8 9 11 10 9 11 10 12 12 13 13 14
REMARK SMILES IDX 14 15
REMARK H PARENT 4 7 14 16
REMARK Flexibility Score: inf
ROOT
ATOM      1  C   UNL A   1      43.111  33.204  41.755  1.00  0.00     0.226 C 
ATOM      2  O   UNL A   1      43.169  32.003  41.556  1.00  0.00    -0.275 OA
ENDROOT
BRANCH   1   3
ATOM      3  C   UNL A   1      43.583  34.132  40.637  1.00  0.00     0.085 C 
ATOM      4  C   UNL A   1      42.662  34.006  39.416  1.00  0.00     0.019 C 
BRANCH   3   5
ATOM      5  C   UNL A   1      45.061  33.877  40.269  1.00  0.00     0.079 C 
BRANCH   5   6
ATOM      6  S   UNL A   1      46.265  34.706  41.368  1.00  0.00    -0.179 SA
ATOM      7  H   UNL A   1      45.376  34.730  42.460  1.00  0.00     0.102 HD
ENDBRANCH   5   6
ENDBRANCH   3   5
ENDBRANCH   1   3
BRANCH   1   8
ATOM      8  N   UNL A   1      42.628  33.678  42.952  1.00  0.00    -0.329 N 
ATOM      9  C   UNL A   1      43.462  34.324  43.949  1.00  0.00     0.120 C 
ATOM     10  C   UNL A   1      41.248  33.552  43.434  1.00  0.00     0.195 C 
ATOM     11  C   UNL A   1      42.623  34.271  45.220  1.00  0.00     0.024 C 
ATOM     12  C   UNL A   1      41.237  34.472  44.671  1.00  0.00     0.039 C 
BRANCH  10  13
ATOM     13  C   UNL A   1      40.172  33.974  42.434  1.00  0.00     0.326 C 
ATOM     14  O   UNL A   1      40.025  35.149  42.136  1.00  0.00    -0.250 OA
BRANCH  13  15
ATOM     15  O   UNL A   1      39.280  33.079  41.956  1.00  0.00    -0.480 OA
ATOM     16  H   UNL A   1      38.562  32.724  42.495  1.00  0.00     0.296 HD
ENDBRANCH  13  15
ENDBRANCH  10  13
ENDBRANCH   1   8
TORSDOF 6
ENDMDL
MODEL 3
REMARK VINA RESULT:    -5.329      9.125     10.280
REMARK INTER + INTRA:          -7.316
REMARK INTER:                  -6.854
REMARK INTRA:                  -0.462
REMARK UNBOUND:                -0.429
REMARK SMILES C[C@H](CS)C(=O)N1CCC[C@H]1C(=O)O
REMARK SMILES IDX 5 1 6 2 2 3 1 4 3 5 4 6 7 8 8 9 11 10 9 11 10 12 12 13 13 14
REMARK SMILES IDX 14 15
REMARK H PARENT 4 7 14 16
REMARK Flexibility Score: inf
ROOT
ATOM      1  C   UNL A   1      42.823  32.086  41.024  1.00  0.00     0.226 C 
ATOM      2  O   UNL A   1      42.324  31.263  40.275  1.00  0.00    -0.275 OA
ENDROOT
BRANCH   1   3
ATOM      3  C   UNL A   1      43.956  31.619  41.937  1.00  0.00     0.085 C 
ATOM      4  C   UNL A   1      43.389  30.841  43.132  1.00  0.00     0.019 C 
BRANCH   3   5
ATOM      5  C   UNL A   1      44.848  32.794  42.388  1.00  0.00     0.079 C 
BRANCH   5   6
ATOM      6  S   UNL A   1      44.732  33.188  44.170  1.00  0.00    -0.179 SA
ATOM      7  H   UNL A   1      44.380  31.871  44.523  1.00  0.00     0.102 HD
ENDBRANCH   5   6
ENDBRANCH   3   5
ENDBRANCH   1   3
BRANCH   1   8
ATOM      8  N   UNL A   1      42.364  33.382  41.021  1.00  0.00    -0.329 N 
ATOM      9  C   UNL A   1      42.696  34.343  39.985  1.00  0.00     0.120 C 
ATOM     10  C   UNL A   1      41.546  34.007  42.065  1.00  0.00     0.195 C 
ATOM     11  C   UNL A   1      42.351  35.689  40.610  1.00  0.00     0.024 C 
ATOM     12  C   UNL A   1      41.129  35.341  41.414  1.00  0.00     0.039 C 
BRANCH  10  13
ATOM     13  C   UNL A   1      40.318  33.205  42.494  1.00  0.00     0.326 C 
ATOM     14  O   UNL A   1      40.336  32.535  43.516  1.00  0.00    -0.250 OA
BRANCH  13  15
ATOM     15  O   UNL A   1      39.233  33.114  41.693  1.00  0.00    -0.480 OA
ATOM     16  H   UNL A   1      39.039  32.326  41.171  1.00  0.00     0.296 HD
ENDBRANCH  13  15
ENDBRANCH  10  13
ENDBRANCH   1   8
TORSDOF 6
ENDMDL
MODEL 4
REMARK VINA RESULT:    -5.307      1.379      1.823
REMARK INTER + INTRA:          -7.288
REMARK INTER:                  -6.860
REMARK INTRA:                  -0.428
REMARK UNBOUND:                -0.429
REMARK SMILES C[C@H](CS)C(=O)N1CCC[C@H]1C(=O)O
REMARK SMILES IDX 5 1 6 2 2 3 1 4 3 5 4 6 7 8 8 9 11 10 9 11 10 12 12 13 13 14
REMARK SMILES IDX 14 15
REMARK H PARENT 4 7 14 16
REMARK Flexibility Score: inf
ROOT
ATOM      1  C   UNL A   1      40.705  38.786  49.443  1.00  0.00     0.226 C 
ATOM      2  O   UNL A   1      40.162  39.541  48.654  1.00  0.00    -0.275 OA
ENDROOT
BRANCH   1   3
ATOM      3  C   UNL A   1      41.802  39.363  50.336  1.00  0.00     0.085 C 
ATOM      4  C   UNL A   1      41.670  38.815  51.762  1.00  0.00     0.019 C 
BRANCH   3   5
ATOM      5  C   UNL A   1      41.805  40.907  50.312  1.00  0.00     0.079 C 
BRANCH   5   6
ATOM      6  S   UNL A   1      42.982  41.677  51.481  1.00  0.00    -0.179 SA
ATOM      7  H   UNL A   1      44.046  41.645  50.559  1.00  0.00     0.102 HD
ENDBRANCH   5   6
ENDBRANCH   3   5
ENDBRANCH   1   3
BRANCH   1   8
ATOM      8  N   UNL A   1      40.318  37.469  49.506  1.00  0.00    -0.329 N 
ATOM      9  C   UNL A   1      38.982  37.047  49.886  1.00  0.00     0.120 C 
ATOM     10  C   UNL A   1      41.182  36.306  49.275  1.00  0.00     0.195 C 
ATOM     11  C   UNL A   1      39.147  35.573  50.233  1.00  0.00     0.024 C 
ATOM     12  C   UNL A   1      40.173  35.141  49.222  1.00  0.00     0.039 C 
BRANCH  10  13
ATOM     13  C   UNL A   1      42.015  36.362  47.995  1.00  0.00     0.326 C 
ATOM     14  O   UNL A   1      41.504  36.136  46.909  1.00  0.00    -0.250 OA
BRANCH  13  15
ATOM     15  O   UNL A   1      43.353  36.536  48.045  1.00  0.00    -0.480 OA
ATOM     16  H   UNL A   1      43.760  37.320  48.436  1.00  0.00     0.296 HD
ENDBRANCH  13  15
ENDBRANCH  10  13
ENDBRANCH   1   8
TORSDOF 6
ENDMDL
MODEL 5
REMARK VINA RESULT:    -5.298      7.928      9.330
REMARK INTER + INTRA:          -7.275
REMARK INTER:                  -6.832
REMARK INTRA:                  -0.443
REMARK UNBOUND:                -0.429
REMARK SMILES C[C@H](CS)C(=O)N1CCC[C@H]1C(=O)O
REMARK SMILES IDX 5 1 6 2 2 3 1 4 3 5 4 6 7 8 8 9 11 10 9 11 10 12 12 13 13 14
REMARK SMILES IDX 14 15
REMARK H PARENT 4 7 14 16
REMARK Flexibility Score: inf
ROOT
ATOM      1  C   UNL A   1      41.491  35.037  41.710  1.00  0.00     0.226 C 
ATOM      2  O   UNL A   1      40.312  35.299  41.547  1.00  0.00    -0.275 OA
ENDROOT
BRANCH   1   3
ATOM      3  C   UNL A   1      42.481  35.538  40.660  1.00  0.00     0.085 C 
ATOM      4  C   UNL A   1      42.873  34.397  39.712  1.00  0.00     0.019 C 
BRANCH   3   5
ATOM      5  C   UNL A   1      43.718  36.197  41.307  1.00  0.00     0.079 C 
BRANCH   5   6
ATOM      6  S   UNL A   1      45.224  35.160  41.283  1.00  0.00    -0.179 SA
ATOM      7  H   UNL A   1      45.612  35.609  40.006  1.00  0.00     0.102 HD
ENDBRANCH   5   6
ENDBRANCH   3   5
ENDBRANCH   1   3
BRANCH   1   8
ATOM      8  N   UNL A   1      41.886  34.319  42.814  1.00  0.00    -0.329 N 
ATOM      9  C   UNL A   1      42.160  34.926  44.104  1.00  0.00     0.120 C 
ATOM     10  C   UNL A   1      42.154  32.877  42.852  1.00  0.00     0.195 C 
ATOM     11  C   UNL A   1      42.956  33.860  44.849  1.00  0.00     0.024 C 
ATOM     12  C   UNL A   1      42.296  32.600  44.361  1.00  0.00     0.039 C 
BRANCH  10  13
ATOM     13  C   UNL A   1      41.063  32.000  42.238  1.00  0.00     0.326 C 
ATOM     14  O   UNL A   1      41.355  31.034  41.549  1.00  0.00    -0.250 OA
BRANCH  13  15
ATOM     15  O   UNL A   1      39.760  32.342  42.336  1.00  0.00    -0.480 OA
ATOM     16  H   UNL A   1      39.299  32.391  43.183  1.00  0.00     0.296 HD
ENDBRANCH  13  15
ENDBRANCH  10  13
ENDBRANCH   1   8
TORSDOF 6
ENDMDL
MODEL 6
REMARK VINA RESULT:    -5.238      7.692      9.143
REMARK INTER + INTRA:          -7.197
REMARK INTER:                  -6.704
REMARK INTRA:                  -0.494
REMARK UNBOUND:                -0.429
REMARK SMILES C[C@H](CS)C(=O)N1CCC[C@H]1C(=O)O
REMARK SMILES IDX 5 1 6 2 2 3 1 4 3 5 4 6 7 8 8 9 11 10 9 11 10 12 12 13 13 14
REMARK SMILES IDX 14 15
REMARK H PARENT 4 7 14 16
REMARK Flexibility Score: inf
ROOT
ATOM      1  C   UNL A   1      43.061  34.141  43.894  1.00  0.00     0.226 C 
ATOM      2  O   UNL A   1      42.616  34.792  44.823  1.00  0.00    -0.275 OA
ENDROOT
BRANCH   1   3
ATOM      3  C   UNL A   1      43.385  32.670  44.149  1.00  0.00     0.085 C 
ATOM      4  C   UNL A   1      42.692  31.784  43.106  1.00  0.00     0.019 C 
BRANCH   3   5
ATOM      5  C   UNL A   1      43.027  32.248  45.590  1.00  0.00     0.079 C 
BRANCH   5   6
ATOM      6  S   UNL A   1      42.671  30.465  45.787  1.00  0.00    -0.179 SA
ATOM      7  H   UNL A   1      43.713  30.077  44.922  1.00  0.00     0.102 HD
ENDBRANCH   5   6
ENDBRANCH   3   5
ENDBRANCH   1   3
BRANCH   1   8
ATOM      8  N   UNL A   1      43.250  34.737  42.669  1.00  0.00    -0.329 N 
ATOM      9  C   UNL A   1      44.534  34.781  41.993  1.00  0.00     0.120 C 
ATOM     10  C   UNL A   1      42.233  35.461  41.899  1.00  0.00     0.195 C 
ATOM     11  C   UNL A   1      44.359  35.873  40.945  1.00  0.00     0.024 C 
ATOM     12  C   UNL A   1      42.926  35.668  40.537  1.00  0.00     0.039 C 
BRANCH  10  13
ATOM     13  C   UNL A   1      40.905  34.726  41.727  1.00  0.00     0.326 C 
ATOM     14  O   UNL A   1      40.742  33.941  40.805  1.00  0.00    -0.250 OA
BRANCH  13  15
ATOM     15  O   UNL A   1      39.843  35.019  42.509  1.00  0.00    -0.480 OA
ATOM     16  H   UNL A   1      39.913  35.586  43.287  1.00  0.00     0.296 HD
ENDBRANCH  13  15
ENDBRANCH  10  13
ENDBRANCH   1   8
TORSDOF 6
ENDMDL
MODEL 7
REMARK VINA RESULT:    -5.211      6.792      8.544
REMARK INTER + INTRA:          -7.164
REMARK INTER:                  -6.767
REMARK INTRA:                  -0.397
REMARK UNBOUND:                -0.429
REMARK SMILES C[C@H](CS)C(=O)N1CCC[C@H]1C(=O)O
REMARK SMILES IDX 5 1 6 2 2 3 1 4 3 5 4 6 7 8 8 9 11 10 9 11 10 12 12 13 13 14
REMARK SMILES IDX 14 15
REMARK H PARENT 4 7 14 16
REMARK Flexibility Score: inf
ROOT
ATOM      1  C   UNL A   1      43.016  33.349  43.563  1.00  0.00     0.226 C 
ATOM      2  O   UNL A   1      42.712  32.213  43.241  1.00  0.00    -0.275 OA
ENDROOT
BRANCH   1   3
ATOM      3  C   UNL A   1      43.191  33.641  45.052  1.00  0.00     0.085 C 
ATOM      4  C   UNL A   1      43.687  32.387  45.785  1.00  0.00     0.019 C 
BRANCH   3   5
ATOM      5  C   UNL A   1      41.897  34.199  45.682  1.00  0.00     0.079 C 
BRANCH   5   6
ATOM      6  S   UNL A   1      42.168  35.525  46.912  1.00  0.00    -0.179 SA
ATOM      7  H   UNL A   1      41.197  36.368  46.339  1.00  0.00     0.102 HD
ENDBRANCH   5   6
ENDBRANCH   3   5
ENDBRANCH   1   3
BRANCH   1   8
ATOM      8  N   UNL A   1      43.192  34.311  42.597  1.00  0.00    -0.329 N 
ATOM      9  C   UNL A   1      44.447  34.520  41.899  1.00  0.00     0.120 C 
ATOM     10  C   UNL A   1      42.193  35.297  42.172  1.00  0.00     0.195 C 
ATOM     11  C   UNL A   1      44.299  35.906  41.284  1.00  0.00     0.024 C 
ATOM     12  C   UNL A   1      42.841  35.916  40.918  1.00  0.00     0.039 C 
BRANCH  10  13
ATOM     13  C   UNL A   1      40.814  34.724  41.845  1.00  0.00     0.326 C 
ATOM     14  O   UNL A   1      40.648  34.029  40.855  1.00  0.00    -0.250 OA
BRANCH  13  15
ATOM     15  O   UNL A   1      39.728  35.074  42.567  1.00  0.00    -0.480 OA
ATOM     16  H   UNL A   1      38.996  34.466  42.732  1.00  0.00     0.296 HD
ENDBRANCH  13  15
ENDBRANCH  10  13
ENDBRANCH   1   8
TORSDOF 6
ENDMDL
MODEL 8
REMARK VINA RESULT:    -5.183      7.452      9.331
REMARK INTER + INTRA:          -7.127
REMARK INTER:                  -6.753
REMARK INTRA:                  -0.374
REMARK UNBOUND:                -0.429
REMARK SMILES C[C@H](CS)C(=O)N1CCC[C@H]1C(=O)O
REMARK SMILES IDX 5 1 6 2 2 3 1 4 3 5 4 6 7 8 8 9 11 10 9 11 10 12 12 13 13 14
REMARK SMILES IDX 14 15
REMARK H PARENT 4 7 14 16
REMARK Flexibility Score: inf
ROOT
ATOM      1  C   UNL A   1      41.601  33.962  41.451  1.00  0.00     0.226 C 
ATOM      2  O   UNL A   1      40.402  33.883  41.249  1.00  0.00    -0.275 OA
ENDROOT
BRANCH   1   3
ATOM      3  C   UNL A   1      42.375  35.050  40.708  1.00  0.00     0.085 C 
ATOM      4  C   UNL A   1      43.001  34.477  39.430  1.00  0.00     0.019 C 
BRANCH   3   5
ATOM      5  C   UNL A   1      43.431  35.720  41.613  1.00  0.00     0.079 C 
BRANCH   5   6
ATOM      6  S   UNL A   1      45.160  35.455  41.080  1.00  0.00    -0.179 SA
ATOM      7  H   UNL A   1      45.656  35.474  42.397  1.00  0.00     0.102 HD
ENDBRANCH   5   6
ENDBRANCH   3   5
ENDBRANCH   1   3
BRANCH   1   8
ATOM      8  N   UNL A   1      42.207  33.093  42.328  1.00  0.00    -0.329 N 
ATOM      9  C   UNL A   1      43.241  32.154  41.933  1.00  0.00     0.120 C 
ATOM     10  C   UNL A   1      41.871  32.928  43.746  1.00  0.00     0.195 C 
ATOM     11  C   UNL A   1      43.282  31.151  43.078  1.00  0.00     0.024 C 
ATOM     12  C   UNL A   1      43.019  32.039  44.263  1.00  0.00     0.039 C 
BRANCH  10  13
ATOM     13  C   UNL A   1      41.787  34.227  44.547  1.00  0.00     0.326 C 
ATOM     14  O   UNL A   1      42.801  34.779  44.946  1.00  0.00    -0.250 OA
BRANCH  13  15
ATOM     15  O   UNL A   1      40.594  34.724  44.941  1.00  0.00    -0.480 OA
ATOM     16  H   UNL A   1      40.113  35.385  44.427  1.00  0.00     0.296 HD
ENDBRANCH  13  15
ENDBRANCH  10  13
ENDBRANCH   1   8
TORSDOF 6
ENDMDL
MODEL 9
REMARK VINA RESULT:    -5.116      8.414      9.614
REMARK INTER + INTRA:          -7.041
REMARK INTER:                  -6.697
REMARK INTRA:                  -0.344
REMARK UNBOUND:                -0.429
REMARK SMILES C[C@H](CS)C(=O)N1CCC[C@H]1C(=O)O
REMARK SMILES IDX 5 1 6 2 2 3 1 4 3 5 4 6 7 8 8 9 11 10 9 11 10 12 12 13 13 14
REMARK SMILES IDX 14 15
REMARK H PARENT 4 7 14 16
REMARK Flexibility Score: inf
ROOT
ATOM      1  C   UNL A   1      44.112  33.428  42.956  1.00  0.00     0.226 C 
ATOM      2  O   UNL A   1      45.136  33.818  43.491  1.00  0.00    -0.275 OA
ENDROOT
BRANCH   1   3
ATOM      3  C   UNL A   1      43.697  31.977  43.193  1.00  0.00     0.085 C 
ATOM      4  C   UNL A   1      43.346  31.299  41.862  1.00  0.00     0.019 C 
BRANCH   3   5
ATOM      5  C   UNL A   1      42.542  31.872  44.212  1.00  0.00     0.079 C 
BRANCH   5   6
ATOM      6  S   UNL A   1      42.995  32.353  45.917  1.00  0.00    -0.179 SA
ATOM      7  H   UNL A   1      43.475  31.069  46.239  1.00  0.00     0.102 HD
ENDBRANCH   5   6
ENDBRANCH   3   5
ENDBRANCH   1   3
BRANCH   1   8
ATOM      8  N   UNL A   1      43.377  34.288  42.175  1.00  0.00    -0.329 N 
ATOM      9  C   UNL A   1      42.113  34.865  42.597  1.00  0.00     0.120 C 
ATOM     10  C   UNL A   1      43.703  34.699  40.806  1.00  0.00     0.195 C 
ATOM     11  C   UNL A   1      41.487  35.363  41.300  1.00  0.00     0.024 C 
ATOM     12  C   UNL A   1      42.698  35.839  40.547  1.00  0.00     0.039 C 
BRANCH  10  13
ATOM     13  C   UNL A   1      45.138  35.182  40.598  1.00  0.00     0.326 C 
ATOM     14  O   UNL A   1      45.877  34.617  39.806  1.00  0.00    -0.250 OA
BRANCH  13  15
ATOM     15  O   UNL A   1      45.661  36.157  41.373  1.00  0.00    -0.480 OA
ATOM     16  H   UNL A   1      45.347  36.332  42.269  1.00  0.00     0.296 HD
ENDBRANCH  13  15
ENDBRANCH  10  13
ENDBRANCH   1   8
TORSDOF 6
ENDMDL
